/*--------------------------------*- C++ -*----------------------------------*\
| =========                 |                                                 |
| \\      /  F ield         | foam-extend: Open Source CFD                    |
|  \\    /   O peration     | Version:     5.0                                |
|   \\  /    A nd           | Web:         http://www.foam-extend.org         |
|    \\/     M anipulation  |                                                 |
\*---------------------------------------------------------------------------*/
FoamFile
{
    version     2.0;
    format      ascii;
    class       polyBoundaryMesh;
    location    "constant/polyMesh";
    object      boundary;
}
// * * * * * * * * * * * * * * * * * * * * * * * * * * * * * * * * * * * * * //

4
(
    outlet
    {
        type            patch;
        nFaces          160;
        startFace       146400;
    }
    fixedWalls
    {
        type            wall;
        nFaces          1400;
        startFace       146560;
        closedSolidBodyMotion false;
    }
    inlet
    {
        type            patch;
        nFaces          40;
        startFace       147960;
    }
    frontAndBack
    {
        type            empty;
        nFaces          147200;
        startFace       148000;
    }
)


// ************************************************************************* //
