/*--------------------------------*- C++ -*----------------------------------*\
| =========                 |                                                 |
| \\      /  F ield         | foam-extend: Open Source CFD                    |
|  \\    /   O peration     | Version:     5.0                                |
|   \\  /    A nd           | Web:         http://www.foam-extend.org         |
|    \\/     M anipulation  | For copyright notice see file Copyright         |
\*---------------------------------------------------------------------------*/
FoamFile
{
    version     2.0;
    format      ascii;
    class       dictionary;
    location    "system";
    object      fvSolution;
}
// * * * * * * * * * * * * * * * * * * * * * * * * * * * * * * * * * * * * * //

solvers
{
    p
    {
        solver          GAMG;
        tolerance       1e-09;
        relTol          0.01;
        smoother        GaussSeidel;
        cacheAgglomeration true;
        nCellsInCoarsestLevel 10;
        agglomerator    faceAreaPair;
        mergeLevels     1;
    }
    pFinal
    {
        solver          GAMG;
        tolerance       1e-09;
        relTol          0;
        smoother        GaussSeidel;
        cacheAgglomeration true;
        nCellsInCoarsestLevel 10;
        agglomerator    faceAreaPair;
        mergeLevels     1;
    }
    U
    {
        solver          BiCGStab;
        preconditioner  DILU;
        tolerance       1e-09;
        relTol          0.1;
    }
    UFinal
    {
        solver          BiCGStab;
        preconditioner  DILU;
        tolerance       1e-09;
        relTol          0;
    }
    k
    {
        solver          BiCGStab;
        preconditioner  DILU;
        tolerance       1e-09;
        relTol          0;
    }
    epsilon
    {
        solver          BiCGStab;
        preconditioner  DILU;
        tolerance       1e-09;
        relTol          0;
    }
}

potentialFlow
{
    nNonOrthogonalCorrectors  3;
}

PIMPLE
{
    nOuterCorrectors        1;
    nCorrectors    1;
    nNonOrthogonalCorrectors 0;
    pRefCell        0;
    pRefValue       0;
    residualControl
    {
        p 
        {
            tolerance      1e-07;
            relTol         0.0;
        }
        U
        {
            tolerance      1e-07;
            relTol         0.0;
        }
        tau
        {
            tolerance      1e-07;
            relTol         0.0;
        }
    }
}

relaxationFactors
{
    equations
    {
        U               0.3;
        UFinal          0.3;
        k               0.5;
        epsilon         0.5;
    }
    fields
    {
    }
}

// ************************************************************************* //
